22
0-3-4_optfreq.log	Energy: -314193.1909445
C          1.24556        2.12044        0.00000
C          0.00000        1.43478        0.00000
C          2.44994        1.41447       -0.00000
C          0.00000        0.00000        0.00000
C         -1.24556        2.12044       -0.00000
C          1.24256       -0.71739        0.00000
C         -1.24256       -0.71739        0.00000
C          2.45913        0.01847       -0.00000
C          1.21357       -2.13890        0.00000
C         -2.44994        1.41447       -0.00000
C         -2.45913        0.01847        0.00000
C         -1.21357       -2.13890        0.00000
C         -0.00000       -2.82895       -0.00000
H          1.24752        3.20633        0.00000
H          3.39003        1.95723        0.00000
H         -1.24752        3.20633       -0.00000
H          3.40052       -0.52278       -0.00000
H          2.15300       -2.68355        0.00000
H         -3.39003        1.95723       -0.00000
H         -3.40052       -0.52278        0.00000
H         -2.15300       -2.68355        0.00000
H         -0.00000       -3.91446        0.00000
