24
0-4-8_optfreq.log	Energy: -338485.1174685
C          0.00000        3.66919       -0.71446
C          0.00000        2.48457       -1.41049
C         -0.00000        3.66919        0.71446
C          0.00000        1.22646       -0.72454
C         -0.00000        1.22646        0.72454
C         -0.00000        0.00000       -1.40733
C         -0.00000        2.48457        1.41049
C         -0.00000        0.00000        1.40733
C          0.00000       -1.22646       -0.72454
C          0.00000       -1.22646        0.72454
C          0.00000       -2.48457       -1.41049
C          0.00000       -2.48457        1.41049
C          0.00000       -3.66919       -0.71446
C          0.00000       -3.66919        0.71446
H          0.00000        4.61543       -1.24608
H          0.00000        2.48156       -2.49690
H         -0.00000        4.61543        1.24608
H         -0.00000        0.00000       -2.49458
H         -0.00000        2.48156        2.49690
H         -0.00000        0.00000        2.49458
H          0.00000       -2.48156       -2.49690
H          0.00000       -2.48156        2.49690
H          0.00000       -4.61543       -1.24608
H          0.00000       -4.61543        1.24608
